@<TRIPOS>MOLECULE
title: molecule 1_000
25   26    1
SMALL
USER_CHARGES


@<TRIPOS>ATOM
1    C1        7.9825   -0.2658   12.2341  C.3   1 B2T        -0.0125 
2    S2        8.6541    0.2321   13.8356  S.3   1 B2T        -0.3200 
3    C3        8.6497    1.9249   13.6078  C.ar  1 B2T         1.0787 
4    N4        9.6749    2.5870   14.0128  N.ar  1 B2T        -0.9262 
5    N5        7.6345    2.5506   13.0401  N.ar  1 B2T        -0.9262 
6    C6        7.6898    3.8984   12.8743  C.ar  1 B2T         1.1262 
7    N7        6.6831    4.5680   12.2964  N.pl3 1 B2T        -0.9200 
8    N10       8.8002    4.5524   13.3098  N.ar  1 B2T        -0.9262 
9    C11       9.7735    3.8635   13.8777  C.ar  1 B2T         0.9262 
10   C12      10.8896    4.5281   14.3291  C.ar  1 B2T         0.0000 
11   C13      11.0694    4.6839   15.7229  C.ar  1 B2T        -0.1150 
12   C14      12.1555    5.4223   16.2239  C.ar  1 B2T        -0.1150 
13   C15      13.0749    6.0109   15.3382  C.ar  1 B2T        -0.1150 
14   C16      12.9154    5.8462   13.9518  C.ar  1 B2T        -0.1150 
15   C17      11.8297    5.1084   13.4357  C.ar  1 B2T         0.1800 
16   CL18     11.7271    4.9311   11.7492  Cl    1 B2T        -0.1800 
17   H11       8.0709   -1.3491   12.1384  H     1 B2T         0.0600 
18   H12       6.9295    0.0105   12.1668  H     1 B2T         0.0600 
19   H13       8.5396    0.2055   11.4239  H     1 B2T         0.0600 
20   H71       6.7456    5.5295   12.1859  H     1 B2T         0.3600 
21   H72       5.8976    4.0936   11.9806  H     1 B2T         0.3600 
22   H13      10.3980    4.2832   16.3869  H     1 B2T         0.1150 
23   H14      12.2759    5.5344   17.2319  H     1 B2T         0.1150 
24   H15      13.8589    6.5551   15.7022  H     1 B2T         0.1150 
25   H16      13.5960    6.2683   13.3182  H     1 B2T         0.1150 
@<TRIPOS>BOND
     1    1    2 1    
     2    1   17 1    
     3    1   18 1    
     4    1   19 1    
     5    2    3 1    
     6    3    4 ar   
     7    3    5 ar   
     8    4    9 ar   
     9    5    6 ar   
    10    6    7 1    
    11    6    8 ar   
    12    7   20 1    
    13    7   21 1    
    14    8    9 ar   
    15    9   10 1    
    16   10   11 ar   
    17   10   15 ar   
    18   11   12 ar   
    19   11   22 1    
    20   12   13 ar   
    21   12   23 1    
    22   13   14 ar   
    23   13   24 1    
    24   14   15 ar   
    25   14   25 1    
    26   15   16 1    
@<TRIPOS>SUBSTRUCTURE
     1 B2T         1 GROUP             0       ****    0 ROOT    
@<TRIPOS>PROPERTY_DATA
  Total_Score	| 5.1936
  Crash		| -0.4911
  Polar		| 1.4039

@<TRIPOS>MOLECULE
title: molecule 1_001
25   26    1
SMALL
USER_CHARGES


@<TRIPOS>ATOM
1    C1        8.8449   -0.5550   13.2373  C.3   1 B2T        -0.0125 
2    S2        7.9385    0.1367   11.8377  S.3   1 B2T        -0.3200 
3    C3        8.0569    1.7961   12.2245  C.ar  1 B2T         1.0787 
4    N4        9.1936    2.3619   12.4164  N.ar  1 B2T        -0.9262 
5    N5        6.9430    2.4997   12.2708  N.ar  1 B2T        -0.9262 
6    C6        7.0136    3.8322   12.5364  C.ar  1 B2T         1.1262 
7    N7        5.9028    4.5775   12.5977  N.pl3 1 B2T        -0.9200 
8    N10       8.2407    4.3854   12.7335  N.ar  1 B2T        -0.9262 
9    C11       9.3143    3.6173   12.6709  C.ar  1 B2T         0.9262 
10   C12      10.5652    4.1742   12.8623  C.ar  1 B2T         0.0000 
11   C13      11.1146    4.9716   11.8277  C.ar  1 B2T        -0.1150 
12   C14      12.3743    5.5750   11.9757  C.ar  1 B2T        -0.1150 
13   C15      13.0996    5.4000   13.1653  C.ar  1 B2T        -0.1150 
14   C16      12.5712    4.6053   14.1995  C.ar  1 B2T        -0.1150 
15   C17      11.3129    3.9826   14.0562  C.ar  1 B2T         0.1800 
16   CL18     10.7624    3.0314   15.3518  Cl    1 B2T        -0.1800 
17   H11       8.8955   -1.6395   13.1136  H     1 B2T         0.0600 
18   H12       9.8595   -0.1571   13.2725  H     1 B2T         0.0600 
19   H13       8.3238   -0.3293   14.1682  H     1 B2T         0.0600 
20   H71       5.9720    5.5301   12.7688  H     1 B2T         0.3600 
21   H72       5.0374    4.1651   12.4606  H     1 B2T         0.3600 
22   H13      10.6059    5.1225   10.9548  H     1 B2T         0.1150 
23   H14      12.7599    6.1455   11.2164  H     1 B2T         0.1150 
24   H15      14.0112    5.8457   13.2739  H     1 B2T         0.1150 
25   H16      13.1145    4.4816   15.0589  H     1 B2T         0.1150 
@<TRIPOS>BOND
     1    1    2 1    
     2    1   17 1    
     3    1   18 1    
     4    1   19 1    
     5    2    3 1    
     6    3    4 ar   
     7    3    5 ar   
     8    4    9 ar   
     9    5    6 ar   
    10    6    7 1    
    11    6    8 ar   
    12    7   20 1    
    13    7   21 1    
    14    8    9 ar   
    15    9   10 1    
    16   10   11 ar   
    17   10   15 ar   
    18   11   12 ar   
    19   11   22 1    
    20   12   13 ar   
    21   12   23 1    
    22   13   14 ar   
    23   13   24 1    
    24   14   15 ar   
    25   14   25 1    
    26   15   16 1    
@<TRIPOS>SUBSTRUCTURE
     1 B2T         1 GROUP             0       ****    0 ROOT    
@<TRIPOS>PROPERTY_DATA
  Total_Score	| 4.7149
  Crash		| -0.7658
  Polar		| 1.4100

@<TRIPOS>MOLECULE
title: molecule 1_002
25   26    1
SMALL
USER_CHARGES


@<TRIPOS>ATOM
1    C1        7.5538    0.2518   11.7821  C.3   1 B2T        -0.0125 
2    S2        8.7328   -0.5439   12.9007  S.3   1 B2T        -0.3200 
3    C3        9.3519    0.8461   13.7027  C.ar  1 B2T         1.0787 
4    N4        9.4512    1.9892   13.1203  N.ar  1 B2T        -0.9262 
5    N5        9.7763    0.6955   14.9436  N.ar  1 B2T        -0.9262 
6    C6       10.2998    1.7703   15.6002  C.ar  1 B2T         1.1262 
7    N7       10.7266    1.6607   16.8689  N.pl3 1 B2T        -0.9200 
8    N10      10.3719    2.9600   14.9245  N.ar  1 B2T        -0.9262 
9    C11       9.9362    3.0396   13.6818  C.ar  1 B2T         0.9262 
10   C12      10.0036    4.2289   12.9744  C.ar  1 B2T         0.0000 
11   C13      11.2400    4.6057   12.3962  C.ar  1 B2T        -0.1150 
12   C14      11.3517    5.8033   11.6612  C.ar  1 B2T        -0.1150 
13   C15      10.2373    6.6420   11.4976  C.ar  1 B2T        -0.1150 
14   C16       9.0089    6.2853   12.0802  C.ar  1 B2T        -0.1150 
15   C17       8.8797    5.0876   12.8209  C.ar  1 B2T         0.1800 
16   CL18      7.3721    4.7675   13.5263  Cl    1 B2T        -0.1800 
17   H11       7.0138   -0.5154   11.2379  H     1 B2T         0.0600 
18   H12       6.8470    0.8586   12.3567  H     1 B2T         0.0600 
19   H13       8.0881    0.8891   11.0670  H     1 B2T         0.0600 
20   H71      11.0904    2.4335   17.3254  H     1 B2T         0.3600 
21   H72      10.6606    0.8134   17.3274  H     1 B2T         0.3600 
22   H13      12.0636    4.0182   12.4968  H     1 B2T         0.1150 
23   H14      12.2480    6.0676   11.2387  H     1 B2T         0.1150 
24   H15      10.3118    7.5119   10.9709  H     1 B2T         0.1150 
25   H16       8.2106    6.9158   11.9626  H     1 B2T         0.1150 
@<TRIPOS>BOND
     1    1    2 1    
     2    1   17 1    
     3    1   18 1    
     4    1   19 1    
     5    2    3 1    
     6    3    4 ar   
     7    3    5 ar   
     8    4    9 ar   
     9    5    6 ar   
    10    6    7 1    
    11    6    8 ar   
    12    7   20 1    
    13    7   21 1    
    14    8    9 ar   
    15    9   10 1    
    16   10   11 ar   
    17   10   15 ar   
    18   11   12 ar   
    19   11   22 1    
    20   12   13 ar   
    21   12   23 1    
    22   13   14 ar   
    23   13   24 1    
    24   14   15 ar   
    25   14   25 1    
    26   15   16 1    
@<TRIPOS>SUBSTRUCTURE
     1 B2T         1 GROUP             0       ****    0 ROOT    
@<TRIPOS>PROPERTY_DATA
  Total_Score	| 4.0796
  Crash		| -1.3726
  Polar		| 1.2911

@<TRIPOS>MOLECULE
title: molecule 1_003
25   26    1
SMALL
USER_CHARGES


@<TRIPOS>ATOM
1    C1       12.1475    5.5912   11.6908  C.3   1 B2T        -0.0125 
2    S2       13.2860    4.8440   12.8768  S.3   1 B2T        -0.3200 
3    C3       12.1318    4.0072   13.8160  C.ar  1 B2T         1.0787 
4    N4       11.3244    3.1730   13.2653  N.ar  1 B2T        -0.9262 
5    N5       12.0907    4.2101   15.1185  N.ar  1 B2T        -0.9262 
6    C6       11.1824    3.5326   15.8698  C.ar  1 B2T         1.1262 
7    N7       11.0940    3.7340   17.1898  N.pl3 1 B2T        -0.9200 
8    N10      10.3534    2.6577   15.2401  N.ar  1 B2T        -0.9262 
9    C11      10.4519    2.5057   13.9330  C.ar  1 B2T         0.9262 
10   C12       9.6062    1.6483   13.2663  C.ar  1 B2T         0.0000 
11   C13       8.6154    2.2049   12.4213  C.ar  1 B2T        -0.1150 
12   C14       7.7324    1.3713   11.7160  C.ar  1 B2T        -0.1150 
13   C15       7.8355   -0.0237   11.8398  C.ar  1 B2T        -0.1150 
14   C16       8.8146   -0.5890   12.6771  C.ar  1 B2T        -0.1150 
15   C17       9.7016    0.2372   13.3974  C.ar  1 B2T         0.1800 
16   CL18     10.8896   -0.5165   14.3514  Cl    1 B2T        -0.1800 
17   H11      12.7298    6.1469   10.9610  H     1 B2T         0.0600 
18   H12      11.5691    4.8288   11.1677  H     1 B2T         0.0600 
19   H13      11.4731    6.2763   12.2040  H     1 B2T         0.0600 
20   H71      10.4353    3.2532   17.7105  H     1 B2T         0.3600 
21   H72      11.6799    4.3737   17.6195  H     1 B2T         0.3600 
22   H13       8.5240    3.2213   12.3208  H     1 B2T         0.1150 
23   H14       7.0153    1.7813   11.1131  H     1 B2T         0.1150 
24   H15       7.2043   -0.6254   11.3118  H     1 B2T         0.1150 
25   H16       8.8823   -1.6079   12.7480  H     1 B2T         0.1150 
@<TRIPOS>BOND
     1    1    2 1    
     2    1   17 1    
     3    1   18 1    
     4    1   19 1    
     5    2    3 1    
     6    3    4 ar   
     7    3    5 ar   
     8    4    9 ar   
     9    5    6 ar   
    10    6    7 1    
    11    6    8 ar   
    12    7   20 1    
    13    7   21 1    
    14    8    9 ar   
    15    9   10 1    
    16   10   11 ar   
    17   10   15 ar   
    18   11   12 ar   
    19   11   22 1    
    20   12   13 ar   
    21   12   23 1    
    22   13   14 ar   
    23   13   24 1    
    24   14   15 ar   
    25   14   25 1    
    26   15   16 1    
@<TRIPOS>SUBSTRUCTURE
     1 B2T         1 GROUP             0       ****    0 ROOT    
@<TRIPOS>PROPERTY_DATA
  Total_Score	| 3.8217
  Crash		| -0.5586
  Polar		| 0.0905

@<TRIPOS>MOLECULE
title: molecule 1_004
25   26    1
SMALL
USER_CHARGES


@<TRIPOS>ATOM
1    C1       11.5055    0.4349   13.5846  C.3   1 B2T        -0.0125 
2    S2       10.6152    1.9310   13.0927  S.3   1 B2T        -0.3200 
3    C3       11.7107    3.0924   13.7042  C.ar  1 B2T         1.0787 
4    N4       12.9144    3.1407   13.2569  N.ar  1 B2T        -0.9262 
5    N5       11.2887    3.9629   14.6044  N.ar  1 B2T        -0.9262 
6    C6       12.1631    4.8994   15.0749  C.ar  1 B2T         1.1262 
7    N7       11.7791    5.8155   15.9787  N.pl3 1 B2T        -0.9200 
8    N10      13.4311    4.9030   14.5834  N.ar  1 B2T        -0.9262 
9    C11      13.7694    4.0056   13.6755  C.ar  1 B2T         0.9262 
10   C12      15.0445    4.0057   13.1531  C.ar  1 B2T         0.0000 
11   C13      15.2490    4.6087   11.8893  C.ar  1 B2T        -0.1150 
12   C14      16.5250    4.6262   11.3024  C.ar  1 B2T        -0.1150 
13   C15      17.6117    4.0327   11.9689  C.ar  1 B2T        -0.1150 
14   C16      17.4200    3.4298   13.2270  C.ar  1 B2T        -0.1150 
15   C17      16.1449    3.4189   13.8293  C.ar  1 B2T         0.1800 
16   CL18     15.9782    2.6657   15.3430  Cl    1 B2T        -0.1800 
17   H11      10.8994   -0.4360   13.3424  H     1 B2T         0.0600 
18   H12      12.4582    0.3562   13.0555  H     1 B2T         0.0600 
19   H13      11.6879    0.4504   14.6614  H     1 B2T         0.0600 
20   H71      12.4164    6.4800   16.2908  H     1 B2T         0.3600 
21   H72      10.8646    5.8430   16.2961  H     1 B2T         0.3600 
22   H13      14.4730    5.0388   11.3797  H     1 B2T         0.1150 
23   H14      16.6618    5.0640   10.3863  H     1 B2T         0.1150 
24   H15      18.5383    4.0357   11.5370  H     1 B2T         0.1150 
25   H16      18.2160    2.9898   13.6940  H     1 B2T         0.1150 
@<TRIPOS>BOND
     1    1    2 1    
     2    1   17 1    
     3    1   18 1    
     4    1   19 1    
     5    2    3 1    
     6    3    4 ar   
     7    3    5 ar   
     8    4    9 ar   
     9    5    6 ar   
    10    6    7 1    
    11    6    8 ar   
    12    7   20 1    
    13    7   21 1    
    14    8    9 ar   
    15    9   10 1    
    16   10   11 ar   
    17   10   15 ar   
    18   11   12 ar   
    19   11   22 1    
    20   12   13 ar   
    21   12   23 1    
    22   13   14 ar   
    23   13   24 1    
    24   14   15 ar   
    25   14   25 1    
    26   15   16 1    
@<TRIPOS>SUBSTRUCTURE
     1 B2T         1 GROUP             0       ****    0 ROOT    
@<TRIPOS>PROPERTY_DATA
  Total_Score	| 3.7205
  Crash		| -0.2756
  Polar		| 1.1886

@<TRIPOS>MOLECULE
title: molecule 1_005
25   26    1
SMALL
USER_CHARGES


@<TRIPOS>ATOM
1    C1       12.6189    5.1948   13.7078  C.3   1 B2T        -0.0125 
2    S2       11.7549    5.2121   12.1207  S.3   1 B2T        -0.3200 
3    C3       10.3727    4.3302   12.6009  C.ar  1 B2T         1.0787 
4    N4       10.4835    3.1435   13.0810  N.ar  1 B2T        -0.9262 
5    N5        9.1844    4.8824   12.4363  N.ar  1 B2T        -0.9262 
6    C6        8.0780    4.1757   12.8042  C.ar  1 B2T         1.1262 
7    N7        6.8517    4.7010   12.6814  N.pl3 1 B2T        -0.9200 
8    N10       8.2478    2.9218   13.3106  N.ar  1 B2T        -0.9262 
9    C11       9.4701    2.4420   13.4381  C.ar  1 B2T         0.9262 
10   C12       9.6610    1.1687   13.9417  C.ar  1 B2T         0.0000 
11   C13       9.1904    0.0670   13.1894  C.ar  1 B2T        -0.1150 
12   C14       9.3765   -1.2504   13.6444  C.ar  1 B2T        -0.1150 
13   C15      10.0262   -1.4836   14.8659  C.ar  1 B2T        -0.1150 
14   C16      10.4837   -0.4006   15.6354  C.ar  1 B2T        -0.1150 
15   C17      10.3063    0.9251   15.1843  C.ar  1 B2T         0.1800 
16   CL18     10.8598    2.1684   16.2012  Cl    1 B2T        -0.1800 
17   H11      13.5330    5.7779   13.6195  H     1 B2T         0.0600 
18   H12      11.9963    5.6348   14.4851  H     1 B2T         0.0600 
19   H13      12.8819    4.1765   13.9913  H     1 B2T         0.0600 
20   H71       6.0719    4.1957   12.9505  H     1 B2T         0.3600 
21   H72       6.7523    5.5904   12.3250  H     1 B2T         0.3600 
22   H13       8.7296    0.2065   12.2864  H     1 B2T         0.1150 
23   H14       9.0427   -2.0370   13.0822  H     1 B2T         0.1150 
24   H15      10.1557   -2.4407   15.1997  H     1 B2T         0.1150 
25   H16      10.9475   -0.5863   16.5290  H     1 B2T         0.1150 
@<TRIPOS>BOND
     1    1    2 1    
     2    1   17 1    
     3    1   18 1    
     4    1   19 1    
     5    2    3 1    
     6    3    4 ar   
     7    3    5 ar   
     8    4    9 ar   
     9    5    6 ar   
    10    6    7 1    
    11    6    8 ar   
    12    7   20 1    
    13    7   21 1    
    14    8    9 ar   
    15    9   10 1    
    16   10   11 ar   
    17   10   15 ar   
    18   11   12 ar   
    19   11   22 1    
    20   12   13 ar   
    21   12   23 1    
    22   13   14 ar   
    23   13   24 1    
    24   14   15 ar   
    25   14   25 1    
    26   15   16 1    
@<TRIPOS>SUBSTRUCTURE
     1 B2T         1 GROUP             0       ****    0 ROOT    
@<TRIPOS>PROPERTY_DATA
  Total_Score	| 3.5570
  Crash		| -0.1753
  Polar		| 1.4156

@<TRIPOS>MOLECULE
title: molecule 1_006
25   26    1
SMALL
USER_CHARGES


@<TRIPOS>ATOM
1    C1        8.1743    0.9719   11.4048  C.3   1 B2T        -0.0125 
2    S2        7.2387    0.8297   12.9413  S.3   1 B2T        -0.3200 
3    C3        8.5885    0.7963   13.9859  C.ar  1 B2T         1.0787 
4    N4        8.9531   -0.3129   14.5257  N.ar  1 B2T        -0.9262 
5    N5        9.2271    1.9155   14.2542  N.ar  1 B2T        -0.9262 
6    C6       10.2893    1.8827   15.1029  C.ar  1 B2T         1.1262 
7    N7       10.9613    3.0033   15.4137  N.pl3 1 B2T        -0.9200 
8    N10      10.6311    0.6864   15.6478  N.ar  1 B2T        -0.9262 
9    C11       9.9446   -0.4002   15.3466  C.ar  1 B2T         0.9262 
10   C12      10.2953   -1.6290   15.9082  C.ar  1 B2T         0.0000 
11   C13      10.4385   -2.7591   15.0623  C.ar  1 B2T        -0.1150 
12   C14      10.8436   -4.0090   15.5696  C.ar  1 B2T        -0.1150 
13   C15      11.1063   -4.1507   16.9415  C.ar  1 B2T        -0.1150 
14   C16      10.9328   -3.0546   17.8075  C.ar  1 B2T        -0.1150 
15   C17      10.5259   -1.8016   17.3062  C.ar  1 B2T         0.1800 
16   CL18     10.2461   -0.5722   18.4507  Cl    1 B2T        -0.1800 
17   H11       7.4796    1.0624   10.5726  H     1 B2T         0.0600 
18   H12       8.8149    1.8541   11.4284  H     1 B2T         0.0600 
19   H13       8.7875    0.0815   11.2649  H     1 B2T         0.0600 
20   H71      11.7172    2.9668   16.0223  H     1 B2T         0.3600 
21   H72      10.6963    3.8520   15.0259  H     1 B2T         0.3600 
22   H13      10.2779   -2.6814   14.0543  H     1 B2T         0.1150 
23   H14      10.9522   -4.8083   14.9393  H     1 B2T         0.1150 
24   H15      11.4086   -5.0531   17.3158  H     1 B2T         0.1150 
25   H16      11.0988   -3.1874   18.8109  H     1 B2T         0.1150 
@<TRIPOS>BOND
     1    1    2 1    
     2    1   17 1    
     3    1   18 1    
     4    1   19 1    
     5    2    3 1    
     6    3    4 ar   
     7    3    5 ar   
     8    4    9 ar   
     9    5    6 ar   
    10    6    7 1    
    11    6    8 ar   
    12    7   20 1    
    13    7   21 1    
    14    8    9 ar   
    15    9   10 1    
    16   10   11 ar   
    17   10   15 ar   
    18   11   12 ar   
    19   11   22 1    
    20   12   13 ar   
    21   12   23 1    
    22   13   14 ar   
    23   13   24 1    
    24   14   15 ar   
    25   14   25 1    
    26   15   16 1    
@<TRIPOS>SUBSTRUCTURE
     1 B2T         1 GROUP             0       ****    0 ROOT    
@<TRIPOS>PROPERTY_DATA
  Total_Score	| 3.5328
  Crash		| -0.5743
  Polar		| 0.8481

@<TRIPOS>MOLECULE
title: molecule 1_007
25   26    1
SMALL
USER_CHARGES


@<TRIPOS>ATOM
1    C1        8.0849    0.2778   11.7980  C.3   1 B2T        -0.0125 
2    S2        8.6165    1.5108   13.0085  S.3   1 B2T        -0.3200 
3    C3       10.1205    0.8238   13.4380  C.ar  1 B2T         1.0787 
4    N4       10.1719   -0.1980   14.2199  N.ar  1 B2T        -0.9262 
5    N5       11.2286    1.3931   12.9980  N.ar  1 B2T        -0.9262 
6    C6       12.4310    0.8744   13.3715  C.ar  1 B2T         1.1262 
7    N7       13.5665    1.4287   12.9210  N.pl3 1 B2T        -0.9200 
8    N10      12.4386   -0.2046   14.1990  N.ar  1 B2T        -0.9262 
9    C11      11.2885   -0.7110   14.6030  C.ar  1 B2T         0.9262 
10   C12      11.2975   -1.8130   15.4312  C.ar  1 B2T         0.0000 
11   C13      11.0643   -3.0841   14.8572  C.ar  1 B2T        -0.1150 
12   C14      11.0877   -4.2440   15.6479  C.ar  1 B2T        -0.1150 
13   C15      11.3401   -4.1506   17.0262  C.ar  1 B2T        -0.1150 
14   C16      11.5615   -2.8942   17.6144  C.ar  1 B2T        -0.1150 
15   C17      11.5403   -1.7228   16.8289  C.ar  1 B2T         0.1800 
16   CL18     11.7971   -0.2451   17.6230  Cl    1 B2T        -0.1800 
17   H11       7.1502    0.6089   11.3454  H     1 B2T         0.0600 
18   H12       8.8306    0.1676   11.0119  H     1 B2T         0.0600 
19   H13       7.9197   -0.6856   12.2810  H     1 B2T         0.0600 
20   H71      14.4235    1.0376   13.1456  H     1 B2T         0.3600 
21   H72      13.5290    2.1933   12.3246  H     1 B2T         0.3600 
22   H13      10.8979   -3.1828   13.8532  H     1 B2T         0.1150 
23   H14      10.9423   -5.1570   15.2119  H     1 B2T         0.1150 
24   H15      11.3629   -4.9966   17.6017  H     1 B2T         0.1150 
25   H16      11.7397   -2.8446   18.6204  H     1 B2T         0.1150 
@<TRIPOS>BOND
     1    1    2 1    
     2    1   17 1    
     3    1   18 1    
     4    1   19 1    
     5    2    3 1    
     6    3    4 ar   
     7    3    5 ar   
     8    4    9 ar   
     9    5    6 ar   
    10    6    7 1    
    11    6    8 ar   
    12    7   20 1    
    13    7   21 1    
    14    8    9 ar   
    15    9   10 1    
    16   10   11 ar   
    17   10   15 ar   
    18   11   12 ar   
    19   11   22 1    
    20   12   13 ar   
    21   12   23 1    
    22   13   14 ar   
    23   13   24 1    
    24   14   15 ar   
    25   14   25 1    
    26   15   16 1    
@<TRIPOS>SUBSTRUCTURE
     1 B2T         1 GROUP             0       ****    0 ROOT    
@<TRIPOS>PROPERTY_DATA
  Total_Score	| 3.5087
  Crash		| -0.7832
  Polar		| 1.7893

@<TRIPOS>MOLECULE
title: molecule 1_008
25   26    1
SMALL
USER_CHARGES


@<TRIPOS>ATOM
1    C1       12.0021    5.3629   11.7143  C.3   1 B2T        -0.0125 
2    S2       13.3147    4.6658   12.7421  S.3   1 B2T        -0.3200 
3    C3       12.2918    3.8551   13.8434  C.ar  1 B2T         1.0787 
4    N4       11.6696    2.7935   13.4750  N.ar  1 B2T        -0.9262 
5    N5       12.1662    4.3137   15.0704  N.ar  1 B2T        -0.9262 
6    C6       11.3627    3.6522   15.9453  C.ar  1 B2T         1.1262 
7    N7       11.1984    4.0906   17.2022  N.pl3 1 B2T        -0.9200 
8    N10      10.7318    2.5269   15.5073  N.ar  1 B2T        -0.9262 
9    C11      10.9054    2.1222   14.2641  C.ar  1 B2T         0.9262 
10   C12      10.2607    0.9821   13.8033  C.ar  1 B2T         0.0000 
11   C13       9.4625    1.0745   12.6341  C.ar  1 B2T        -0.1150 
12   C14       8.7688   -0.0418   12.1414  C.ar  1 B2T        -0.1150 
13   C15       8.8870   -1.2830   12.7886  C.ar  1 B2T        -0.1150 
14   C16       9.6799   -1.4005   13.9421  C.ar  1 B2T        -0.1150 
15   C17      10.3555   -0.2785   14.4594  C.ar  1 B2T         0.1800 
16   CL18     11.3114   -0.5509   15.8401  Cl    1 B2T        -0.1800 
17   H11      12.4503    5.9948   10.9510  H     1 B2T         0.0600 
18   H12      11.4360    4.5668   11.2277  H     1 B2T         0.0600 
19   H13      11.3336    5.9726   12.3227  H     1 B2T         0.0600 
20   H71      10.6323    3.6006   17.8160  H     1 B2T         0.3600 
21   H72      11.6546    4.8947   17.4978  H     1 B2T         0.3600 
22   H13       9.3575    1.9679   12.1390  H     1 B2T         0.1150 
23   H14       8.1849    0.0426   11.3073  H     1 B2T         0.1150 
24   H15       8.4031   -2.1040   12.4199  H     1 B2T         0.1150 
25   H16       9.7527   -2.3124   14.3991  H     1 B2T         0.1150 
@<TRIPOS>BOND
     1    1    2 1    
     2    1   17 1    
     3    1   18 1    
     4    1   19 1    
     5    2    3 1    
     6    3    4 ar   
     7    3    5 ar   
     8    4    9 ar   
     9    5    6 ar   
    10    6    7 1    
    11    6    8 ar   
    12    7   20 1    
    13    7   21 1    
    14    8    9 ar   
    15    9   10 1    
    16   10   11 ar   
    17   10   15 ar   
    18   11   12 ar   
    19   11   22 1    
    20   12   13 ar   
    21   12   23 1    
    22   13   14 ar   
    23   13   24 1    
    24   14   15 ar   
    25   14   25 1    
    26   15   16 1    
@<TRIPOS>SUBSTRUCTURE
     1 B2T         1 GROUP             0       ****    0 ROOT    
@<TRIPOS>PROPERTY_DATA
  Total_Score	| 3.4103
  Crash		| -0.4770
  Polar		| 0.0328

@<TRIPOS>MOLECULE
title: molecule 1_009
25   26    1
SMALL
USER_CHARGES


@<TRIPOS>ATOM
1    C1       12.4543    5.2174   12.1264  C.3   1 B2T        -0.0125 
2    S2       13.9471    5.2741   13.1420  S.3   1 B2T        -0.3200 
3    C3       13.4012    4.3572   14.4707  C.ar  1 B2T         1.0787 
4    N4       14.1528    3.4106   14.9050  N.ar  1 B2T        -0.9262 
5    N5       12.2519    4.6168   15.0638  N.ar  1 B2T        -0.9262 
6    C6       11.8671    3.8665   16.1304  C.ar  1 B2T         1.1262 
7    N7       10.7019    4.0850   16.7558  N.pl3 1 B2T        -0.9200 
8    N10      12.7031    2.8734   16.5476  N.ar  1 B2T        -0.9262 
9    C11      13.8417    2.6727   15.9108  C.ar  1 B2T         0.9262 
10   C12      14.6996    1.6721   16.3260  C.ar  1 B2T         0.0000 
11   C13      14.8078    0.4977   15.5435  C.ar  1 B2T        -0.1150 
12   C14      15.6674   -0.5464   15.9268  C.ar  1 B2T        -0.1150 
13   C15      16.4388   -0.4270   17.0935  C.ar  1 B2T        -0.1150 
14   C16      16.3528    0.7388   17.8758  C.ar  1 B2T        -0.1150 
15   C17      15.4860    1.7902   17.5019  C.ar  1 B2T         0.1800 
16   CL18     15.4520    3.1751   18.4835  Cl    1 B2T        -0.1800 
17   H11      12.6478    5.7200   11.1764  H     1 B2T         0.0600 
18   H12      12.1756    4.1812   11.9301  H     1 B2T         0.0600 
19   H13      11.6362    5.7294   12.6349  H     1 B2T         0.0600 
20   H71      10.4380    3.5246   17.5041  H     1 B2T         0.3600 
21   H72      10.1150    4.8000   16.4604  H     1 B2T         0.3600 
22   H13      14.2586    0.3874   14.6877  H     1 B2T         0.1150 
23   H14      15.7315   -1.3936   15.3548  H     1 B2T         0.1150 
24   H15      17.0590   -1.1892   17.3728  H     1 B2T         0.1150 
25   H16      16.9213    0.8122   18.7236  H     1 B2T         0.1150 
@<TRIPOS>BOND
     1    1    2 1    
     2    1   17 1    
     3    1   18 1    
     4    1   19 1    
     5    2    3 1    
     6    3    4 ar   
     7    3    5 ar   
     8    4    9 ar   
     9    5    6 ar   
    10    6    7 1    
    11    6    8 ar   
    12    7   20 1    
    13    7   21 1    
    14    8    9 ar   
    15    9   10 1    
    16   10   11 ar   
    17   10   15 ar   
    18   11   12 ar   
    19   11   22 1    
    20   12   13 ar   
    21   12   23 1    
    22   13   14 ar   
    23   13   24 1    
    24   14   15 ar   
    25   14   25 1    
    26   15   16 1    
@<TRIPOS>SUBSTRUCTURE
     1 B2T         1 GROUP             0       ****    0 ROOT    
@<TRIPOS>PROPERTY_DATA
  Total_Score	| 3.3854
  Crash		| -0.2830
  Polar		| 1.5506

@<TRIPOS>MOLECULE
title: molecule 1_010
25   26    1
SMALL
USER_CHARGES


@<TRIPOS>ATOM
1    C1       12.4640    0.0559   15.8571  C.3   1 B2T        -0.0125 
2    S2       11.0034    0.9717   16.3984  S.3   1 B2T        -0.3200 
3    C3       10.3111    1.2219   14.8595  C.ar  1 B2T         1.0787 
4    N4       10.3586    2.3981   14.3429  N.ar  1 B2T        -0.9262 
5    N5        9.7029    0.2341   14.2325  N.ar  1 B2T        -0.9262 
6    C6        9.1280    0.4752   13.0226  C.ar  1 B2T         1.1262 
7    N7        8.5068   -0.5089   12.3596  N.pl3 1 B2T        -0.9200 
8    N10       9.1962    1.7343   12.5135  N.ar  1 B2T        -0.9262 
9    C11       9.8238    2.6659   13.2056  C.ar  1 B2T         0.9262 
10   C12       9.9013    3.9370   12.6945  C.ar  1 B2T         0.0000 
11   C13      11.1168    4.3461   12.0973  C.ar  1 B2T        -0.1150 
12   C14      11.2345    5.6255   11.5333  C.ar  1 B2T        -0.1150 
13   C15      10.1442    6.5098   11.5722  C.ar  1 B2T        -0.1150 
14   C16       8.9393    6.1197   12.1822  C.ar  1 B2T        -0.1150 
15   C17       8.8027    4.8344   12.7393  C.ar  1 B2T         0.1800 
16   CL18      7.3088    4.4431   13.4484  Cl    1 B2T        -0.1800 
17   H11      13.0095   -0.2802   16.7377  H     1 B2T         0.0600 
18   H12      12.1765   -0.8171   15.2721  H     1 B2T         0.0600 
19   H13      13.1190    0.6923   15.2616  H     1 B2T         0.0600 
20   H71       8.0781   -0.3199   11.5107  H     1 B2T         0.3600 
21   H72       8.4965   -1.4106   12.7208  H     1 B2T         0.3600 
22   H13      11.9182    3.7104   12.0420  H     1 B2T         0.1150 
23   H14      12.1062    5.9004   11.0738  H     1 B2T         0.1150 
24   H15      10.2251    7.4350   11.1497  H     1 B2T         0.1150 
25   H16       8.1535    6.7708   12.1934  H     1 B2T         0.1150 
@<TRIPOS>BOND
     1    1    2 1    
     2    1   17 1    
     3    1   18 1    
     4    1   19 1    
     5    2    3 1    
     6    3    4 ar   
     7    3    5 ar   
     8    4    9 ar   
     9    5    6 ar   
    10    6    7 1    
    11    6    8 ar   
    12    7   20 1    
    13    7   21 1    
    14    8    9 ar   
    15    9   10 1    
    16   10   11 ar   
    17   10   15 ar   
    18   11   12 ar   
    19   11   22 1    
    20   12   13 ar   
    21   12   23 1    
    22   13   14 ar   
    23   13   24 1    
    24   14   15 ar   
    25   14   25 1    
    26   15   16 1    
@<TRIPOS>SUBSTRUCTURE
     1 B2T         1 GROUP             0       ****    0 ROOT    
@<TRIPOS>PROPERTY_DATA
  Total_Score	| 3.3729
  Crash		| -0.8147
  Polar		| 1.1238

@<TRIPOS>MOLECULE
title: molecule 1_011
25   26    1
SMALL
USER_CHARGES


@<TRIPOS>ATOM
1    C1        6.6868    1.5696   13.7392  C.3   1 B2T        -0.0125 
2    S2        7.7893    1.1929   12.3551  S.3   1 B2T        -0.3200 
3    C3        8.8064    2.5567   12.4806  C.ar  1 B2T         1.0787 
4    N4       10.0662    2.3906   12.6867  N.ar  1 B2T        -0.9262 
5    N5        8.3139    3.7722   12.3382  N.ar  1 B2T        -0.9262 
6    C6        9.1520    4.8370   12.4236  C.ar  1 B2T         1.1262 
7    N7        8.7076    6.0925   12.2836  N.pl3 1 B2T        -0.9200 
8    N10      10.4665    4.5854   12.6556  N.ar  1 B2T        -0.9262 
9    C11      10.9192    3.3502   12.7784  C.ar  1 B2T         0.9262 
10   C12      12.2875    3.1015   13.0260  C.ar  1 B2T         0.0000 
11   C13      12.6625    1.8900   13.6726  C.ar  1 B2T        -0.1150 
12   C14      13.9992    1.6012   13.9934  C.ar  1 B2T        -0.1150 
13   C15      15.0090    2.5215   13.6831  C.ar  1 B2T        -0.1150 
14   C16      14.6814    3.7149   13.0238  C.ar  1 B2T        -0.1150 
15   C17      13.3411    4.0086   12.6904  C.ar  1 B2T         0.1800 
16   CL18     13.1301    5.4675   11.8442  Cl    1 B2T        -0.1800 
17   H11       5.9630    0.7620   13.8479  H     1 B2T         0.0600 
18   H12       7.2624    1.6561   14.6607  H     1 B2T         0.0600 
19   H13       6.1456    2.4997   13.5565  H     1 B2T         0.0600 
20   H71       9.3272    6.8374   12.3200  H     1 B2T         0.3600 
21   H72       7.7679    6.2596   12.1239  H     1 B2T         0.3600 
22   H13      11.9585    1.1990   13.9430  H     1 B2T         0.1150 
23   H14      14.2379    0.7258   14.4642  H     1 B2T         0.1150 
24   H15      15.9801    2.3213   13.9277  H     1 B2T         0.1150 
25   H16      15.4346    4.3639   12.7836  H     1 B2T         0.1150 
@<TRIPOS>BOND
     1    1    2 1    
     2    1   17 1    
     3    1   18 1    
     4    1   19 1    
     5    2    3 1    
     6    3    4 ar   
     7    3    5 ar   
     8    4    9 ar   
     9    5    6 ar   
    10    6    7 1    
    11    6    8 ar   
    12    7   20 1    
    13    7   21 1    
    14    8    9 ar   
    15    9   10 1    
    16   10   11 ar   
    17   10   15 ar   
    18   11   12 ar   
    19   11   22 1    
    20   12   13 ar   
    21   12   23 1    
    22   13   14 ar   
    23   13   24 1    
    24   14   15 ar   
    25   14   25 1    
    26   15   16 1    
@<TRIPOS>SUBSTRUCTURE
     1 B2T         1 GROUP             0       ****    0 ROOT    
@<TRIPOS>PROPERTY_DATA
  Total_Score	| 3.3555
  Crash		| -0.9328
  Polar		| 1.3787

@<TRIPOS>MOLECULE
title: molecule 1_012
25   26    1
SMALL
USER_CHARGES


@<TRIPOS>ATOM
1    C1        9.3359   -0.7085   12.9323  C.3   1 B2T        -0.0125 
2    S2        8.3055    0.0362   14.2124  S.3   1 B2T        -0.3200 
3    C3        9.3190    1.3397   14.6307  C.ar  1 B2T         1.0787 
4    N4        9.3773    2.3766   13.8741  N.ar  1 B2T        -0.9262 
5    N5       10.0033    1.2937   15.7565  N.ar  1 B2T        -0.9262 
6    C6       10.7816    2.3519   16.1043  C.ar  1 B2T         1.1262 
7    N7       11.4764    2.3395   17.2506  N.pl3 1 B2T        -0.9200 
8    N10      10.8190    3.4202   15.2610  N.ar  1 B2T        -0.9262 
9    C11      10.1010    3.4025   14.1535  C.ar  1 B2T         0.9262 
10   C12      10.1288    4.4827   13.2882  C.ar  1 B2T         0.0000 
11   C13      11.3685    4.8514   12.7115  C.ar  1 B2T        -0.1150 
12   C14      11.4477    5.9199   11.8014  C.ar  1 B2T        -0.1150 
13   C15      10.2916    6.6472   11.4736  C.ar  1 B2T        -0.1150 
14   C16       9.0569    6.3087   12.0521  C.ar  1 B2T        -0.1150 
15   C17       8.9634    5.2242   12.9495  C.ar  1 B2T         0.1800 
16   CL18      7.4453    4.9063   13.6418  Cl    1 B2T        -0.1800 
17   H11       8.8071   -1.5716   12.5263  H     1 B2T         0.0600 
18   H12       9.5131    0.0088   12.1305  H     1 B2T         0.0600 
19   H13      10.2883   -1.0422   13.3470  H     1 B2T         0.0600 
20   H71      12.0283    3.0976   17.4982  H     1 B2T         0.3600 
21   H72      11.4230    1.5690   17.8371  H     1 B2T         0.3600 
22   H13      12.2225    4.3302   12.9340  H     1 B2T         0.1150 
23   H14      12.3467    6.1693   11.3798  H     1 B2T         0.1150 
24   H15      10.3472    7.4342   10.8247  H     1 B2T         0.1150 
25   H16       8.2328    6.8702   11.8217  H     1 B2T         0.1150 
@<TRIPOS>BOND
     1    1    2 1    
     2    1   17 1    
     3    1   18 1    
     4    1   19 1    
     5    2    3 1    
     6    3    4 ar   
     7    3    5 ar   
     8    4    9 ar   
     9    5    6 ar   
    10    6    7 1    
    11    6    8 ar   
    12    7   20 1    
    13    7   21 1    
    14    8    9 ar   
    15    9   10 1    
    16   10   11 ar   
    17   10   15 ar   
    18   11   12 ar   
    19   11   22 1    
    20   12   13 ar   
    21   12   23 1    
    22   13   14 ar   
    23   13   24 1    
    24   14   15 ar   
    25   14   25 1    
    26   15   16 1    
@<TRIPOS>SUBSTRUCTURE
     1 B2T         1 GROUP             0       ****    0 ROOT    
@<TRIPOS>PROPERTY_DATA
  Total_Score	| 3.3443
  Crash		| -1.8916
  Polar		| 1.3521

@<TRIPOS>MOLECULE
title: molecule 1_013
25   26    1
SMALL
USER_CHARGES


@<TRIPOS>ATOM
1    C1        6.9019    1.5484   13.6585  C.3   1 B2T        -0.0125 
2    S2        8.0066    1.1322   12.2902  S.3   1 B2T        -0.3200 
3    C3        8.9882    2.5248   12.4037  C.ar  1 B2T         1.0787 
4    N4       10.2537    2.3908   12.5851  N.ar  1 B2T        -0.9262 
5    N5        8.4606    3.7280   12.3070  N.ar  1 B2T        -0.9262 
6    C6        9.2606    4.8187   12.4082  C.ar  1 B2T         1.1262 
7    N7        8.7523    6.0539   12.3188  N.pl3 1 B2T        -0.9200 
8    N10      10.5908    4.6083   12.6032  N.ar  1 B2T        -0.9262 
9    C11      11.0691    3.3807   12.6943  C.ar  1 B2T         0.9262 
10   C12      12.4383    3.1626   12.8959  C.ar  1 B2T         0.0000 
11   C13      13.3653    4.1431   12.4501  C.ar  1 B2T        -0.1150 
12   C14      14.7517    3.9724   12.6118  C.ar  1 B2T        -0.1150 
13   C15      15.2456    2.8156   13.2324  C.ar  1 B2T        -0.1150 
14   C16      14.3538    1.8336   13.6897  C.ar  1 B2T        -0.1150 
15   C17      12.9608    1.9940   13.5304  C.ar  1 B2T         0.1800 
16   CL18     11.9956    0.7660   14.2034  Cl    1 B2T        -0.1800 
17   H11       6.1528    0.7662   13.7632  H     1 B2T         0.0600 
18   H12       7.4691    1.6276   14.5875  H     1 B2T         0.0600 
19   H13       6.3918    2.4916   13.4616  H     1 B2T         0.0600 
20   H71       9.3351    6.8220   12.3820  H     1 B2T         0.3600 
21   H72       7.8043    6.1883   12.1766  H     1 B2T         0.3600 
22   H13      13.0436    4.9932   11.9780  H     1 B2T         0.1150 
23   H14      15.4011    4.6878   12.2765  H     1 B2T         0.1150 
24   H15      16.2535    2.6916   13.3540  H     1 B2T         0.1150 
25   H16      14.7310    1.0023   14.1523  H     1 B2T         0.1150 
@<TRIPOS>BOND
     1    1    2 1    
     2    1   17 1    
     3    1   18 1    
     4    1   19 1    
     5    2    3 1    
     6    3    4 ar   
     7    3    5 ar   
     8    4    9 ar   
     9    5    6 ar   
    10    6    7 1    
    11    6    8 ar   
    12    7   20 1    
    13    7   21 1    
    14    8    9 ar   
    15    9   10 1    
    16   10   11 ar   
    17   10   15 ar   
    18   11   12 ar   
    19   11   22 1    
    20   12   13 ar   
    21   12   23 1    
    22   13   14 ar   
    23   13   24 1    
    24   14   15 ar   
    25   14   25 1    
    26   15   16 1    
@<TRIPOS>SUBSTRUCTURE
     1 B2T         1 GROUP             0       ****    0 ROOT    
@<TRIPOS>PROPERTY_DATA
  Total_Score	| 3.3406
  Crash		| -0.8818
  Polar		| 1.3921

@<TRIPOS>MOLECULE
title: molecule 1_014
25   26    1
SMALL
USER_CHARGES


@<TRIPOS>ATOM
1    C1        7.5563    0.5404   11.5143  C.3   1 B2T        -0.0125 
2    S2        7.1391    1.3621   13.0711  S.3   1 B2T        -0.3200 
3    C3        8.3682    2.5481   13.0340  C.ar  1 B2T         1.0787 
4    N4        9.5660    2.2470   13.3872  N.ar  1 B2T        -0.9262 
5    N5        8.0704    3.7703   12.6473  N.ar  1 B2T        -0.9262 
6    C6        9.0534    4.7110   12.6285  C.ar  1 B2T         1.1262 
7    N7        8.8055    5.9832   12.2834  N.pl3 1 B2T        -0.9200 
8    N10      10.3058    4.3388   13.0199  N.ar  1 B2T        -0.9262 
9    C11      10.5396    3.0919   13.3937  C.ar  1 B2T         0.9262 
10   C12      11.8129    2.7168   13.8020  C.ar  1 B2T         0.0000 
11   C13      12.9038    2.9869   12.9366  C.ar  1 B2T        -0.1150 
12   C14      14.2103    2.6190   13.2889  C.ar  1 B2T        -0.1150 
13   C15      14.4562    2.0067   14.5259  C.ar  1 B2T        -0.1150 
14   C16      13.3920    1.7582   15.4089  C.ar  1 B2T        -0.1150 
15   C17      12.0737    2.1104   15.0634  C.ar  1 B2T         0.1800 
16   CL18     10.8749    1.7939   16.2306  Cl    1 B2T        -0.1800 
17   H11       6.8030   -0.2209   11.3066  H     1 B2T         0.0600 
18   H12       7.5605    1.2570   10.6911  H     1 B2T         0.0600 
19   H13       8.5342    0.0592   11.5885  H     1 B2T         0.0600 
20   H71       9.5298    6.6335   12.2803  H     1 B2T         0.3600 
21   H72       7.8969    6.2534   12.0586  H     1 B2T         0.3600 
22   H13      12.7500    3.4401   12.0305  H     1 B2T         0.1150 
23   H14      14.9811    2.8091   12.6506  H     1 B2T         0.1150 
24   H15      15.4062    1.7648   14.7956  H     1 B2T         0.1150 
25   H16      13.5865    1.3337   16.3116  H     1 B2T         0.1150 
@<TRIPOS>BOND
     1    1    2 1    
     2    1   17 1    
     3    1   18 1    
     4    1   19 1    
     5    2    3 1    
     6    3    4 ar   
     7    3    5 ar   
     8    4    9 ar   
     9    5    6 ar   
    10    6    7 1    
    11    6    8 ar   
    12    7   20 1    
    13    7   21 1    
    14    8    9 ar   
    15    9   10 1    
    16   10   11 ar   
    17   10   15 ar   
    18   11   12 ar   
    19   11   22 1    
    20   12   13 ar   
    21   12   23 1    
    22   13   14 ar   
    23   13   24 1    
    24   14   15 ar   
    25   14   25 1    
    26   15   16 1    
@<TRIPOS>SUBSTRUCTURE
     1 B2T         1 GROUP             0       ****    0 ROOT    
@<TRIPOS>PROPERTY_DATA
  Total_Score	| 3.3378
  Crash		| -0.5092
  Polar		| 1.4662

@<TRIPOS>MOLECULE
title: molecule 1_015
25   26    1
SMALL
USER_CHARGES


@<TRIPOS>ATOM
1    C1       10.9228    5.3620   11.5379  C.3   1 B2T        -0.0125 
2    S2       12.3950    4.9737   12.5086  S.3   1 B2T        -0.3200 
3    C3       11.6347    3.9916   13.6735  C.ar  1 B2T         1.0787 
4    N4       11.1185    2.8588   13.3574  N.ar  1 B2T        -0.9262 
5    N5       11.6003    4.4042   14.9256  N.ar  1 B2T        -0.9262 
6    C6       11.0138    3.6263   15.8698  C.ar  1 B2T         1.1262 
7    N7       10.9500    4.0258   17.1475  N.pl3 1 B2T        -0.9200 
8    N10      10.4937    2.4328   15.4774  N.ar  1 B2T        -0.9262 
9    C11      10.5561    2.0708   14.2084  C.ar  1 B2T         0.9262 
10   C12      10.0064    0.8670   13.7774  C.ar  1 B2T         0.0000 
11   C13       9.0309    0.8928   12.7485  C.ar  1 B2T        -0.1150 
12   C14       8.4283   -0.2934   12.2864  C.ar  1 B2T        -0.1150 
13   C15       8.8232   -1.5309   12.8159  C.ar  1 B2T        -0.1150 
14   C16       9.7895   -1.5842   13.8302  C.ar  1 B2T        -0.1150 
15   C17      10.3583   -0.3946   14.3380  C.ar  1 B2T         0.1800 
16   CL18     11.5148   -0.5666   15.5690  Cl    1 B2T        -0.1800 
17   H11      11.2025    6.0372   10.7306  H     1 B2T         0.0600 
18   H12      10.5014    4.4534   11.1072  H     1 B2T         0.0600 
19   H13      10.1764    5.8489   12.1663  H     1 B2T         0.0600 
20   H71      10.5252    3.4605   17.8111  H     1 B2T         0.3600 
21   H72      11.3393    4.8745   17.4173  H     1 B2T         0.3600 
22   H13       8.7089    1.7851   12.3601  H     1 B2T         0.1150 
23   H14       7.7127   -0.2602   11.5577  H     1 B2T         0.1150 
24   H15       8.4072   -2.3968   12.4642  H     1 B2T         0.1150 
25   H16      10.0656   -2.4987   14.1987  H     1 B2T         0.1150 
@<TRIPOS>BOND
     1    1    2 1    
     2    1   17 1    
     3    1   18 1    
     4    1   19 1    
     5    2    3 1    
     6    3    4 ar   
     7    3    5 ar   
     8    4    9 ar   
     9    5    6 ar   
    10    6    7 1    
    11    6    8 ar   
    12    7   20 1    
    13    7   21 1    
    14    8    9 ar   
    15    9   10 1    
    16   10   11 ar   
    17   10   15 ar   
    18   11   12 ar   
    19   11   22 1    
    20   12   13 ar   
    21   12   23 1    
    22   13   14 ar   
    23   13   24 1    
    24   14   15 ar   
    25   14   25 1    
    26   15   16 1    
@<TRIPOS>SUBSTRUCTURE
     1 B2T         1 GROUP             0       ****    0 ROOT    
@<TRIPOS>PROPERTY_DATA
  Total_Score	| 3.3031
  Crash		| -0.8190
  Polar		| 0.0004

@<TRIPOS>MOLECULE
title: molecule 1_016
25   26    1
SMALL
USER_CHARGES


@<TRIPOS>ATOM
1    C1       10.6678    4.3791   15.5622  C.3   1 B2T        -0.0125 
2    S2       11.7029    3.0829   14.8425  S.3   1 B2T        -0.3200 
3    C3       10.5163    1.8603   14.7511  C.ar  1 B2T         1.0787 
4    N4       10.7450    0.7130   15.2879  N.ar  1 B2T        -0.9262 
5    N5        9.3819    2.0814   14.1190  N.ar  1 B2T        -0.9262 
6    C6        8.4487    1.0973   14.0509  C.ar  1 B2T         1.1262 
7    N7        7.2739    1.3260   13.4453  N.pl3 1 B2T        -0.9200 
8    N10       8.7448   -0.0986   14.6277  N.ar  1 B2T        -0.9262 
9    C11       9.9023   -0.2587   15.2427  C.ar  1 B2T         0.9262 
10   C12      10.2119   -1.4811   15.8182  C.ar  1 B2T         0.0000 
11   C13      10.2325   -2.6303   14.9891  C.ar  1 B2T        -0.1150 
12   C14      10.5391   -3.8960   15.5187  C.ar  1 B2T        -0.1150 
13   C15      10.8039   -4.0371   16.8910  C.ar  1 B2T        -0.1150 
14   C16      10.7832   -2.9103   17.7303  C.ar  1 B2T        -0.1150 
15   C17      10.5068   -1.6314   17.2017  C.ar  1 B2T         0.1800 
16   CL18     10.4812   -0.3247   18.2895  Cl    1 B2T        -0.1800 
17   H11      11.2693    5.2751   15.7224  H     1 B2T         0.0600 
18   H12       9.8463    4.6307   14.8896  H     1 B2T         0.0600 
19   H13      10.2665    4.0443   16.5192  H     1 B2T         0.0600 
20   H71       6.5957    0.6339   13.4106  H     1 B2T         0.3600 
21   H72       7.0928    2.1976   13.0566  H     1 B2T         0.3600 
22   H13      10.0576   -2.5470   13.9832  H     1 B2T         0.1150 
23   H14      10.5812   -4.7117   14.9025  H     1 B2T         0.1150 
24   H15      11.0230   -4.9555   17.2825  H     1 B2T         0.1150 
25   H16      10.9744   -3.0348   18.7283  H     1 B2T         0.1150 
@<TRIPOS>BOND
     1    1    2 1    
     2    1   17 1    
     3    1   18 1    
     4    1   19 1    
     5    2    3 1    
     6    3    4 ar   
     7    3    5 ar   
     8    4    9 ar   
     9    5    6 ar   
    10    6    7 1    
    11    6    8 ar   
    12    7   20 1    
    13    7   21 1    
    14    8    9 ar   
    15    9   10 1    
    16   10   11 ar   
    17   10   15 ar   
    18   11   12 ar   
    19   11   22 1    
    20   12   13 ar   
    21   12   23 1    
    22   13   14 ar   
    23   13   24 1    
    24   14   15 ar   
    25   14   25 1    
    26   15   16 1    
@<TRIPOS>SUBSTRUCTURE
     1 B2T         1 GROUP             0       ****    0 ROOT    
@<TRIPOS>PROPERTY_DATA
  Total_Score	| 3.2625
  Crash		| -0.3695
  Polar		| 0.7523

@<TRIPOS>MOLECULE
title: molecule 1_017
25   26    1
SMALL
USER_CHARGES


@<TRIPOS>ATOM
1    C1       12.1631    5.4607   11.8825  C.3   1 B2T        -0.0125 
2    S2       10.5475    4.6504   11.8342  S.3   1 B2T        -0.3200 
3    C3       10.6477    3.7713   13.2947  C.ar  1 B2T         1.0787 
4    N4       10.7260    2.4882   13.2514  N.ar  1 B2T        -0.9262 
5    N5       10.6126    4.3996   14.4534  N.ar  1 B2T        -0.9262 
6    C6       10.6814    3.6725   15.6020  C.ar  1 B2T         1.1262 
7    N7       10.6084    4.2653   16.8011  N.pl3 1 B2T        -0.9200 
8    N10      10.7836    2.3208   15.5011  N.ar  1 B2T        -0.9262 
9    C11      10.8010    1.7566   14.3078  C.ar  1 B2T         0.9262 
10   C12      10.8578    0.3769   14.2135  C.ar  1 B2T         0.0000 
11   C13       9.7431   -0.3145   13.6791  C.ar  1 B2T        -0.1150 
12   C14       9.7135   -1.7186   13.6496  C.ar  1 B2T        -0.1150 
13   C15      10.8008   -2.4553   14.1468  C.ar  1 B2T        -0.1150 
14   C16      11.9269   -1.7858   14.6577  C.ar  1 B2T        -0.1150 
15   C17      11.9639   -0.3756   14.6952  C.ar  1 B2T         0.1800 
16   CL18     13.3859    0.3518   15.2785  Cl    1 B2T        -0.1800 
17   H11      12.3307    5.9691   10.9330  H     1 B2T         0.0600 
18   H12      12.1874    6.1999   12.6838  H     1 B2T         0.0600 
19   H13      12.9578    4.7290   12.0313  H     1 B2T         0.0600 
20   H71      10.6406    3.7342   17.6125  H     1 B2T         0.3600 
21   H72      10.4178    5.2142   16.8492  H     1 B2T         0.3600 
22   H13       8.9287    0.2001   13.3326  H     1 B2T         0.1150 
23   H14       8.8984   -2.2036   13.2714  H     1 B2T         0.1150 
24   H15      10.7777   -3.4778   14.1271  H     1 B2T         0.1150 
25   H16      12.7197   -2.3380   14.9935  H     1 B2T         0.1150 
@<TRIPOS>BOND
     1    1    2 1    
     2    1   17 1    
     3    1   18 1    
     4    1   19 1    
     5    2    3 1    
     6    3    4 ar   
     7    3    5 ar   
     8    4    9 ar   
     9    5    6 ar   
    10    6    7 1    
    11    6    8 ar   
    12    7   20 1    
    13    7   21 1    
    14    8    9 ar   
    15    9   10 1    
    16   10   11 ar   
    17   10   15 ar   
    18   11   12 ar   
    19   11   22 1    
    20   12   13 ar   
    21   12   23 1    
    22   13   14 ar   
    23   13   24 1    
    24   14   15 ar   
    25   14   25 1    
    26   15   16 1    
@<TRIPOS>SUBSTRUCTURE
     1 B2T         1 GROUP             0       ****    0 ROOT    
@<TRIPOS>PROPERTY_DATA
  Total_Score	| 3.1963
  Crash		| -0.7795
  Polar		| 0.8316

@<TRIPOS>MOLECULE
title: molecule 1_018
25   26    1
SMALL
USER_CHARGES


@<TRIPOS>ATOM
1    C1       13.0038    5.5244   12.2740  C.3   1 B2T        -0.0125 
2    S2       13.7519    3.9775   12.8285  S.3   1 B2T        -0.3200 
3    C3       12.4275    3.4227   13.7433  C.ar  1 B2T         1.0787 
4    N4       11.5127    2.7205   13.1765  N.ar  1 B2T        -0.9262 
5    N5       12.3607    3.6979   15.0315  N.ar  1 B2T        -0.9262 
6    C6       11.3080    3.2334   15.7563  C.ar  1 B2T         1.1262 
7    N7       11.1985    3.4880   17.0677  N.pl3 1 B2T        -0.9200 
8    N10      10.3656    2.4927   15.1105  N.ar  1 B2T        -0.9262 
9    C11      10.4994    2.2568   13.8186  C.ar  1 B2T         0.9262 
10   C12       9.5494    1.5039   13.1535  C.ar  1 B2T         0.0000 
11   C13       8.5787    2.1740   12.3716  C.ar  1 B2T        -0.1150 
12   C14       7.5956    1.4492   11.6713  C.ar  1 B2T        -0.1150 
13   C15       7.5657    0.0487   11.7492  C.ar  1 B2T        -0.1150 
14   C16       8.5163   -0.6319   12.5340  C.ar  1 B2T        -0.1150 
15   C17       9.5121    0.0870   13.2347  C.ar  1 B2T         0.1800 
16   CL18     10.6373   -0.8065   14.1416  Cl    1 B2T        -0.1800 
17   H11      13.7154    6.0448   11.6367  H     1 B2T         0.0600 
18   H12      12.0974    5.3259   11.7001  H     1 B2T         0.0600 
19   H13      12.7670    6.1580   13.1299  H     1 B2T         0.0600 
20   H71      10.4470    3.1334   17.5642  H     1 B2T         0.3600 
21   H72      11.8707    4.0205   17.5205  H     1 B2T         0.3600 
22   H13       8.5789    3.1945   12.2948  H     1 B2T         0.1150 
23   H14       6.9052    1.9432   11.1018  H     1 B2T         0.1150 
24   H15       6.8527   -0.4715   11.2380  H     1 B2T         0.1150 
25   H16       8.4832   -1.6524   12.5811  H     1 B2T         0.1150 
@<TRIPOS>BOND
     1    1    2 1    
     2    1   17 1    
     3    1   18 1    
     4    1   19 1    
     5    2    3 1    
     6    3    4 ar   
     7    3    5 ar   
     8    4    9 ar   
     9    5    6 ar   
    10    6    7 1    
    11    6    8 ar   
    12    7   20 1    
    13    7   21 1    
    14    8    9 ar   
    15    9   10 1    
    16   10   11 ar   
    17   10   15 ar   
    18   11   12 ar   
    19   11   22 1    
    20   12   13 ar   
    21   12   23 1    
    22   13   14 ar   
    23   13   24 1    
    24   14   15 ar   
    25   14   25 1    
    26   15   16 1    
@<TRIPOS>SUBSTRUCTURE
     1 B2T         1 GROUP             0       ****    0 ROOT    
@<TRIPOS>PROPERTY_DATA
  Total_Score	| 3.1070
  Crash		| -0.7063
  Polar		| 0.0003

@<TRIPOS>MOLECULE
title: molecule 1_019
25   26    1
SMALL
USER_CHARGES


@<TRIPOS>ATOM
1    C1       14.5657    5.0469   12.1218  C.3   1 B2T        -0.0125 
2    S2       14.8691    3.5595   13.0983  S.3   1 B2T        -0.3200 
3    C3       13.3297    3.4576   13.8237  C.ar  1 B2T         1.0787 
4    N4       12.5769    2.4451   13.5857  N.ar  1 B2T        -0.9262 
5    N5       12.9174    4.4222   14.6242  N.ar  1 B2T        -0.9262 
6    C6       11.6861    4.3372   15.1886  C.ar  1 B2T         1.1262 
7    N7       11.2536    5.3026   16.0118  N.pl3 1 B2T        -0.9200 
8    N10      10.9191    3.2536   14.8827  N.ar  1 B2T        -0.9262 
9    C11      11.3948    2.3163   14.0807  C.ar  1 B2T         0.9262 
10   C12      10.6346    1.1908   13.7798  C.ar  1 B2T         0.0000 
11   C13      11.1848   -0.0934   14.0158  C.ar  1 B2T        -0.1150 
12   C14      10.4509   -1.2632   13.7392  C.ar  1 B2T        -0.1150 
13   C15       9.1714   -1.1728   13.1679  C.ar  1 B2T        -0.1150 
14   C16       8.6095    0.0859   12.9148  C.ar  1 B2T        -0.1150 
15   C17       9.3139    1.2635   13.2509  C.ar  1 B2T         0.1800 
16   CL18      8.5434    2.7350   12.9039  Cl    1 B2T        -0.1800 
17   H11      15.4641    5.2969   11.5543  H     1 B2T         0.0600 
18   H12      13.7438    4.8747   11.4266  H     1 B2T         0.0600 
19   H13      14.3171    5.8791   12.7739  H     1 B2T         0.0600 
20   H71      10.3674    5.2533   16.3914  H     1 B2T         0.3600 
21   H72      11.8015    6.0833   16.1969  H     1 B2T         0.3600 
22   H13      12.1079   -0.1925   14.4498  H     1 B2T         0.1150 
23   H14      10.8550   -2.1821   13.9299  H     1 B2T         0.1150 
24   H15       8.6476   -2.0243   12.9429  H     1 B2T         0.1150 
25   H16       7.6740    0.1341   12.5020  H     1 B2T         0.1150 
@<TRIPOS>BOND
     1    1    2 1    
     2    1   17 1    
     3    1   18 1    
     4    1   19 1    
     5    2    3 1    
     6    3    4 ar   
     7    3    5 ar   
     8    4    9 ar   
     9    5    6 ar   
    10    6    7 1    
    11    6    8 ar   
    12    7   20 1    
    13    7   21 1    
    14    8    9 ar   
    15    9   10 1    
    16   10   11 ar   
    17   10   15 ar   
    18   11   12 ar   
    19   11   22 1    
    20   12   13 ar   
    21   12   23 1    
    22   13   14 ar   
    23   13   24 1    
    24   14   15 ar   
    25   14   25 1    
    26   15   16 1    
@<TRIPOS>SUBSTRUCTURE
     1 B2T         1 GROUP             0       ****    0 ROOT    
@<TRIPOS>PROPERTY_DATA
  Total_Score	| 3.0520
  Crash		| -0.3911
  Polar		| 0.8281

